# invented example
&namrun
  nn_leapy = 0
/


